converter/opendss_cases/34Bus/ieee34-1_Power_elem_kVA.txt

CIRCUIT ELEMENT POWER FLOW

(Power Flow into element from indicated Bus)

Power Delivery Elements

  Bus Phase     kW     +j   kvar         kVA         PF

ELEMENT = "Vsource.source"
SOURCEBUS    1      -684.5 +j   -154.2      701.7       0.9756
SOURCEBUS    2      -621.8 +j    -71.8      625.9       0.9934
SOURCEBUS    3      -724.5 +j    -58.6      726.9       0.9967
   TERMINAL TOTAL -2030.8 +j   -284.5     2050.6       0.9903
SOURCEBUS    0         0.0 +j      0.0        0.0       1.0000
SOURCEBUS    0         0.0 +j      0.0        0.0       1.0000
SOURCEBUS    0         0.0 +j      0.0        0.0       1.0000
   TERMINAL TOTAL     0.0 +j      0.0        0.0       1.0000

ELEMENT = "Transformer.subxf"
SOURCEBUS     1       684.5 +j    154.2      701.7       0.9756
SOURCEBUS     2       621.8 +j     71.8      625.9       0.9934
SOURCEBUS     3       724.5 +j     58.6      726.9       0.9967
SOURCEBUS     0         0.0 +j      0.0        0.0       1.0000
   TERMINAL TOTAL  2030.8 +j    284.5     2050.6       0.9903
800      1      -753.9 +j   -169.3      772.6       0.9757
800      2      -663.0 +j    -86.5      668.6       0.9916
800      3      -613.9 +j    -28.6      614.6       0.9989
800      0         0.0 +j      0.0        0.0       1.0000
   TERMINAL TOTAL -2030.8 +j   -284.5     2050.6       0.9903

ELEMENT = "Line.l1"
800      1       753.9 +j    169.3      772.6       0.9757
800      2       663.0 +j     86.5      668.6       0.9916
800      3       613.9 +j     28.6      614.6       0.9989
   TERMINAL TOTAL  2030.8 +j    284.5     2050.6       0.9903
802      1      -752.3 +j   -169.0      771.0       0.9757
802      2      -662.0 +j    -86.3      667.6       0.9916
802      3      -613.1 +j    -28.7      613.8       0.9989
   TERMINAL TOTAL -2027.4 +j   -284.0     2047.1       0.9903

ELEMENT = "Line.l2"
802      1       752.3 +j    169.0      771.0       0.9757
802      2       647.0 +j     78.8      651.8       0.9927
802      3       600.6 +j     21.7      601.0       0.9993
   TERMINAL TOTAL  1999.9 +j    269.5     2017.9       0.9910
806      1      -751.2 +j   -168.8      769.9       0.9757
806      2      -646.4 +j    -78.7      651.2       0.9927
806      3      -600.0 +j    -21.7      600.4       0.9993
   TERMINAL TOTAL -1997.6 +j   -269.2     2015.7       0.9910

ELEMENT = "Line.l3"
806      1       751.2 +j    168.8      769.9       0.9757
806      2       631.4 +j     71.2      635.4       0.9937
806      3       587.5 +j     14.7      587.7       0.9997
   TERMINAL TOTAL  1970.1 +j    254.7     1986.5       0.9917
808      1      -730.8 +j   -163.9      748.9       0.9758
808      2      -620.8 +j    -69.2      624.6       0.9938
808      3      -577.8 +j    -16.0      578.0       0.9996
   TERMINAL TOTAL -1929.3 +j   -249.1     1945.3       0.9918

ELEMENT = "Line.l4"
808      2         0.0 +j      0.0        0.0       0.9067
   TERMINAL TOTAL     0.0 +j      0.0        0.0       0.9067

ELEMENT = "Line.l5"
808      1       730.8 +j    163.9      748.9       0.9758
808      2       604.3 +j     61.7      607.4       0.9948
808      3       577.8 +j     16.0      578.0       0.9996
   TERMINAL TOTAL  1912.8 +j    241.6     1928.0       0.9921
812      1      -707.0 +j   -157.2      724.3       0.9762
812      2      -592.8 +j    -59.9      595.8       0.9949
812      3      -566.1 +j    -17.2      566.4       0.9995
   TERMINAL TOTAL -1865.9 +j   -234.2     1880.6       0.9922

ELEMENT = "Line.l6"
812      1       707.0 +j    157.2      724.3       0.9762
812      2       592.8 +j     59.9      595.8       0.9949
812      3       566.1 +j     17.2      566.4       0.9995
   TERMINAL TOTAL  1865.9 +j    234.2     1880.6       0.9922
814      1      -688.1 +j   -151.3      704.5       0.9767
814      2      -583.8 +j    -58.1      586.7       0.9951
814      3      -556.8 +j    -17.8      557.1       0.9995
   TERMINAL TOTAL -1828.6 +j   -227.2     1842.7       0.9924

ELEMENT = "Line.l7"
814R     1       688.0 +j    151.0      704.3       0.9768
814R     2       583.7 +j     58.0      586.6       0.9951
814R     3       556.7 +j     17.6      557.0       0.9995
   TERMINAL TOTAL  1828.4 +j    226.5     1842.4       0.9924
850      1      -687.9 +j   -151.0      704.3       0.9768
850      2      -583.7 +j    -58.0      586.6       0.9951
850      3      -556.7 +j    -17.6      557.0       0.9995
   TERMINAL TOTAL -1828.4 +j   -226.5     1842.4       0.9924

ELEMENT = "Line.l8"
816      1         0.2 +j      0.1        0.2       0.8837
   TERMINAL TOTAL     0.2 +j      0.1        0.2       0.8837

ELEMENT = "Line.l9"
816      1       514.4 +j     72.3      519.5       0.9903
816      2       582.0 +j     58.2      584.9       0.9950
816      3       555.6 +j     16.4      555.8       0.9996
   TERMINAL TOTAL  1652.1 +j    146.8     1658.6       0.9961
824      1      -510.2 +j    -73.2      515.4       0.9899
824      2      -576.6 +j    -57.8      579.5       0.9950
824      3      -551.2 +j    -16.1      551.5       0.9996
   TERMINAL TOTAL -1638.1 +j   -147.1     1644.7       0.9960

ELEMENT = "Line.l10"
818      1         3.6 +j      1.8        4.0       0.8933
   TERMINAL TOTAL     3.6 +j      1.8        4.0       0.8933

ELEMENT = "Line.l11"
820      1         0.2 +j      0.1        0.2       0.8895
   TERMINAL TOTAL     0.2 +j      0.1        0.2       0.8895

ELEMENT = "Line.l12"
824      2         0.0 +j      0.0        0.0       0.8881
   TERMINAL TOTAL     0.0 +j      0.0        0.0       0.8881

ELEMENT = "Line.l13"
824      1       510.2 +j     73.2      515.4       0.9899
824      2       534.4 +j     38.2      535.8       0.9974
824      3       548.3 +j     13.9      548.4       0.9997
   TERMINAL TOTAL  1592.9 +j    125.3     1597.8       0.9969
828      1      -509.9 +j    -73.2      515.1       0.9898
828      2      -534.0 +j    -38.2      535.4       0.9974
828      3      -547.9 +j    -13.8      548.1       0.9997
   TERMINAL TOTAL -1591.8 +j   -125.3     1596.7       0.9969

ELEMENT = "Line.l14"
828      1       506.4 +j     71.7      511.4       0.9901
828      2       534.0 +j     38.2      535.4       0.9974
828      3       545.9 +j     12.8      546.0       0.9997
   TERMINAL TOTAL  1586.3 +j    122.8     1591.1       0.9970
830      1      -498.1 +j    -73.3      503.5       0.9894
830      2      -525.0 +j    -38.4      526.4       0.9973
830      3      -537.1 +j    -12.4      537.2       0.9997
   TERMINAL TOTAL -1560.1 +j   -124.0     1565.0       0.9969

ELEMENT = "Line.l15"
830      1       478.8 +j     60.1      482.6       0.9922
830      2       515.0 +j     33.4      516.0       0.9979
830      3       518.4 +j      9.2      518.5       0.9998
   TERMINAL TOTAL  1512.2 +j    102.7     1515.7       0.9977
854      1      -478.6 +j    -60.1      482.4       0.9922
854      2      -514.7 +j    -33.4      515.8       0.9979
854      3      -518.2 +j     -9.2      518.3       0.9998
   TERMINAL TOTAL -1511.6 +j   -102.8     1515.0       0.9977

ELEMENT = "Line.l16"
832      1       311.6 +j    -22.5      312.4      -0.9974
832      2       341.7 +j    -48.0      345.1      -0.9903
832      3       350.9 +j    -76.0      359.0      -0.9774
   TERMINAL TOTAL  1004.2 +j   -146.5     1014.8      -0.9895
858      1      -310.9 +j     21.5      311.7      -0.9976
858      2      -340.7 +j     47.2      344.0      -0.9905
858      3      -350.1 +j     75.3      358.1      -0.9776
   TERMINAL TOTAL -1001.7 +j    144.1     1012.0      -0.9898

ELEMENT = "Line.l17"
834      1       101.1 +j     74.7      125.7       0.8043
834      2       106.2 +j     64.1      124.0       0.8562
834      3       109.2 +j     42.0      117.1       0.9333
   TERMINAL TOTAL   316.6 +j    180.8      364.6       0.8683
860      1      -101.1 +j    -75.2      126.0       0.8023
860      2      -106.1 +j    -64.6      124.2       0.8543
860      3      -109.2 +j    -42.5      117.2       0.9320
   TERMINAL TOTAL  -316.4 +j   -182.2      365.2       0.8665

ELEMENT = "Line.l18"
834      1       172.7 +j   -134.7      219.0      -0.7886
834      2       211.9 +j   -116.4      241.8      -0.8764
834      3       183.8 +j   -128.5      224.2      -0.8195
   TERMINAL TOTAL   568.3 +j   -379.6      683.5      -0.8316
842      1      -172.7 +j    134.6      219.0      -0.7887
842      2      -211.8 +j    116.4      241.7      -0.8764
842      3      -183.7 +j    128.4      224.2      -0.8196
   TERMINAL TOTAL  -568.3 +j    379.4      683.3      -0.8317

ELEMENT = "Line.l19"
836      1        15.3 +j      6.7       16.7       0.9156
836      2        19.9 +j     11.5       23.0       0.8665
836      3        13.3 +j     13.1       18.7       0.7106
   TERMINAL TOTAL    48.5 +j     31.3       57.7       0.8398
840      1       -15.3 +j     -6.9       16.8       0.9107
840      2       -19.9 +j    -11.7       23.1       0.8622
840      3       -13.3 +j    -13.3       18.8       0.7057
   TERMINAL TOTAL   -48.5 +j    -32.0       58.1       0.8348

ELEMENT = "Line.l20"
836      1        -0.0 +j     -0.1        0.1       0.0645
836      2        28.0 +j     13.1       30.9       0.9064
836      3        -0.0 +j     -0.1        0.1       0.0552
   TERMINAL TOTAL    28.0 +j     12.9       30.8       0.9081
862      1         0.0 +j     -0.0        0.0      -0.5061
862      2       -28.0 +j    -13.1       30.9       0.9055
862      3         0.0 +j     -0.0        0.0      -0.7947
   TERMINAL TOTAL   -28.0 +j    -13.1       30.9       0.9055

ELEMENT = "Line.l21"
842      1       168.2 +j   -137.1      217.0      -0.7751
842      2       211.8 +j   -116.4      241.7      -0.8764
842      3       183.7 +j   -128.4      224.2      -0.8196
   TERMINAL TOTAL   563.8 +j   -381.9      681.0      -0.8279
844      1      -168.1 +j    136.8      216.7      -0.7757
844      2      -211.7 +j    116.1      241.4      -0.8768
844      3      -183.7 +j    128.2      224.0      -0.8200
   TERMINAL TOTAL  -563.5 +j    381.1      680.2      -0.8283

ELEMENT = "Line.l22"
844      1        19.9 +j   -144.6      146.0      -0.1363
844      2        55.9 +j   -127.4      139.1      -0.4016
844      3        30.1 +j   -139.0      142.2      -0.2116
   TERMINAL TOTAL   105.9 +j   -411.0      424.5      -0.2494
846      1       -19.9 +j    143.7      145.1      -0.1369
846      2       -55.7 +j    126.6      138.3      -0.4026
846      3       -30.0 +j    138.2      141.5      -0.2123
   TERMINAL TOTAL  -105.5 +j    408.5      421.9      -0.2502

ELEMENT = "Line.l23"
846      1        19.9 +j   -143.7      145.1      -0.1369
846      2        31.7 +j   -138.1      141.6      -0.2235
846      3        20.0 +j   -143.7      145.1      -0.1380
   TERMINAL TOTAL    71.5 +j   -425.5      431.5      -0.1658
848      1       -19.8 +j    143.6      144.9      -0.1370
848      2       -31.6 +j    137.9      141.5      -0.2235
848      3       -20.0 +j    143.6      145.0      -0.1380
   TERMINAL TOTAL   -71.5 +j    425.1      431.1      -0.1658

ELEMENT = "Line.l24"
850      1       687.9 +j    151.0      704.3       0.9768
850      2       583.7 +j     58.0      586.6       0.9951
850      3       556.7 +j     17.6      557.0       0.9995
   TERMINAL TOTAL  1828.4 +j    226.5     1842.4       0.9924
816      1      -687.7 +j   -150.9      704.1       0.9768
816      2      -583.6 +j    -57.9      586.5       0.9951
816      3      -556.6 +j    -17.6      556.9       0.9995
   TERMINAL TOTAL -1827.9 +j   -226.5     1841.8       0.9924

ELEMENT = "Line.l25"
852R     1       464.9 +j     62.8      469.1       0.9910
852R     2       495.1 +j     35.5      496.4       0.9974
852R     3       503.3 +j      8.3      503.3       0.9999
   TERMINAL TOTAL  1463.3 +j    106.6     1467.1       0.9974
832      1      -464.9 +j    -62.8      469.1       0.9910
832      2      -495.1 +j    -35.5      496.4       0.9974
832      3      -503.3 +j     -8.3      503.3       0.9999
   TERMINAL TOTAL -1463.3 +j   -106.6     1467.1       0.9974

ELEMENT = "Transformer.xfm1"
832      1       152.0 +j     84.8      174.1       0.8733
832      2       153.0 +j     83.3      174.2       0.8783
832      3       151.3 +j     83.7      172.9       0.8750
832      0         0.0 +j      0.0        0.0       1.0000
   TERMINAL TOTAL   456.4 +j    251.8      521.3       0.8756
888      1      -148.8 +j    -77.9      168.0       0.8859
888      2      -149.8 +j    -76.4      168.2       0.8909
888      3      -148.1 +j    -76.9      166.9       0.8876
888      0        -0.0 +j      0.0        0.0       1.0000
   TERMINAL TOTAL  -446.8 +j   -231.2      503.1       0.8882

ELEMENT = "Line.l26"
854      2         0.0 +j     -0.0        0.0      -0.9993
   TERMINAL TOTAL     0.0 +j     -0.0        0.0      -0.9993

ELEMENT = "Line.l27"
854      1       478.6 +j     60.1      482.4       0.9922
854      2       510.7 +j     35.3      512.0       0.9976
854      3       518.2 +j      9.2      518.3       0.9998
   TERMINAL TOTAL  1507.6 +j    104.6     1511.2       0.9976
852      1      -464.9 +j    -63.0      469.1       0.9910
852      2      -495.2 +j    -35.6      496.5       0.9974
852      3      -503.3 +j     -8.5      503.4       0.9999
   TERMINAL TOTAL -1463.4 +j   -107.0     1467.3       0.9973

ELEMENT = "Line.l28"
858      1         0.0 +j      0.0        0.0       0.9375
   TERMINAL TOTAL     0.0 +j      0.0        0.0       0.9375

ELEMENT = "Line.l29"
858      1       304.2 +j    -26.3      305.3      -0.9963
858      2       334.8 +j    -48.3      338.2      -0.9898
858      3       342.1 +j    -79.9      351.3      -0.9738
   TERMINAL TOTAL   981.1 +j   -154.5      993.1      -0.9878
834      1      -303.4 +j     25.1      304.5      -0.9966
834      2      -333.6 +j     47.3      337.0      -0.9901
834      3      -341.2 +j     79.2      350.3      -0.9741
   TERMINAL TOTAL  -978.3 +j    151.6      989.9      -0.9882

ELEMENT = "Line.l30"
860      1        38.1 +j     16.8       41.6       0.9151
860      2        67.4 +j     36.4       76.6       0.8800
860      3        32.6 +j     20.9       38.7       0.8417
   TERMINAL TOTAL   138.1 +j     74.1      156.8       0.8812
836      1       -38.1 +j    -17.5       42.0       0.9090
836      2       -67.3 +j    -37.0       76.9       0.8761
836      3       -32.6 +j    -21.5       39.1       0.8347
   TERMINAL TOTAL  -138.1 +j    -76.1      157.7       0.8759

ELEMENT = "Line.l31"
862      2         0.0 +j      0.0        0.0       0.8193
   TERMINAL TOTAL     0.0 +j      0.0        0.0       0.8193

ELEMENT = "Line.l32"
888      1       148.8 +j     77.9      168.0       0.8859
888      2       149.8 +j     76.4      168.2       0.8909
888      3       148.1 +j     76.9      166.9       0.8876
   TERMINAL TOTAL   446.8 +j    231.2      503.1       0.8882
890      1      -137.2 +j    -70.2      154.1       0.8902
890      2      -139.9 +j    -68.2      155.6       0.8989
890      3      -137.0 +j    -68.6      153.2       0.8940
   TERMINAL TOTAL  -414.0 +j   -207.0      462.9       0.8944

ELEMENT = "Capacitor.c844"
844      1         0.0 +j   -106.5      106.5      -0.0000
844      2        -0.0 +j   -106.2      106.2       0.0000
844      3         0.0 +j   -106.3      106.3       1.0000
   TERMINAL TOTAL    -0.0 +j   -319.0      319.0       0.0000
844      0        -0.0 +j      0.0        0.0       1.0000
844      0         0.0 +j     -0.0        0.0       1.0000
844      0         0.0 +j      0.0        0.0       1.0000
   TERMINAL TOTAL     0.0 +j      0.0        0.0       1.0000

ELEMENT = "Capacitor.c848"
848      1         0.0 +j   -159.8      159.8       1.0000
848      2         0.0 +j   -159.2      159.2       1.0000
848      3        -0.0 +j   -159.6      159.6       0.0000
   TERMINAL TOTAL    -0.0 +j   -478.6      478.6       0.0000
848      0        -0.0 +j      0.0        0.0       1.0000
848      0         0.0 +j     -0.0        0.0       1.0000
848      0         0.0 +j      0.0        0.0       1.0000
   TERMINAL TOTAL     0.0 +j      0.0        0.0       1.0000

ELEMENT = "Transformer.reg1a"
814      1       688.1 +j    151.3      704.5       0.9767
814      0         0.0 +j     -0.0        0.0       1.0000
   TERMINAL TOTAL   688.1 +j    151.3      704.5       0.9767
814R     1      -688.0 +j   -151.0      704.3       0.9768
814R     0         0.0 +j      0.0        0.0       1.0000
   TERMINAL TOTAL  -688.0 +j   -151.0      704.3       0.9768

ELEMENT = "Transformer.reg1b"
814      2       583.8 +j     58.1      586.7       0.9951
814      0         0.0 +j      0.0        0.0       1.0000
   TERMINAL TOTAL   583.8 +j     58.1      586.7       0.9951
814R     2      -583.7 +j    -58.0      586.6       0.9951
814R     0        -0.0 +j      0.0        0.0       1.0000
   TERMINAL TOTAL  -583.7 +j    -58.0      586.6       0.9951

ELEMENT = "Transformer.reg1c"
814      3       556.8 +j     17.8      557.1       0.9995
814      0         0.0 +j      0.0        0.0       1.0000
   TERMINAL TOTAL   556.8 +j     17.8      557.1       0.9995
814R     3      -556.7 +j    -17.6      557.0       0.9995
814R     0         0.0 +j     -0.0        0.0       1.0000
   TERMINAL TOTAL  -556.7 +j    -17.6      557.0       0.9995

ELEMENT = "Transformer.reg2a"
852      1       464.9 +j     63.0      469.1       0.9910
852      0         0.0 +j     -0.0        0.0       1.0000
   TERMINAL TOTAL   464.9 +j     63.0      469.1       0.9910
852R     1      -464.9 +j    -62.8      469.1       0.9910
852R     0         0.0 +j      0.0        0.0       1.0000
   TERMINAL TOTAL  -464.9 +j    -62.8      469.1       0.9910

ELEMENT = "Transformer.reg2b"
852      2       495.2 +j     35.6      496.5       0.9974
852      0         0.0 +j      0.0        0.0       1.0000
   TERMINAL TOTAL   495.2 +j     35.6      496.5       0.9974
852R     2      -495.1 +j    -35.5      496.4       0.9974
852R     0        -0.0 +j      0.0        0.0       1.0000
   TERMINAL TOTAL  -495.1 +j    -35.5      496.4       0.9974

ELEMENT = "Transformer.reg2c"
852      3       503.3 +j      8.5      503.4       0.9999
852      0         0.0 +j      0.0        0.0       1.0000
   TERMINAL TOTAL   503.3 +j      8.5      503.4       0.9999
852R     3      -503.3 +j     -8.3      503.3       0.9999
852R     0         0.0 +j     -0.0        0.0       1.0000
   TERMINAL TOTAL  -503.3 +j     -8.3      503.3       0.9999

= = = = = = = = = = = = = = = = = = =  = = = = = = = = = = =  = =

Power Conversion Elements

  Bus Phase     kW   +j  kvar         kVA         PF

ELEMENT = "Load.s860"
860      1      20.0 +j   16.0       25.6       0.7809
860      2      20.0 +j   16.0       25.6       0.7809
860      3      20.0 +j   16.0       25.6       0.7809
860      0      -0.0 +j    0.0        0.0       1.0000
  TERMINAL TOTAL     60.0 +j     48.0       76.8       0.7809

ELEMENT = "Load.s840"
840      1       9.3 +j    7.2       11.8       0.7894
840      2       9.3 +j    7.2       11.7       0.7894
840      3       9.3 +j    7.2       11.8       0.7894
840      0      -0.0 +j    0.0        0.0       1.0000
  TERMINAL TOTAL     27.8 +j     21.6       35.3       0.7894

ELEMENT = "Load.s844"
844      1     143.7 +j  111.8      182.1       0.7894
844      2     143.3 +j  111.5      181.6       0.7894
844      3     143.6 +j  111.7      181.9       0.7894
844      0      -0.0 +j    0.0        0.0       1.0000
  TERMINAL TOTAL    430.6 +j    334.9      545.5       0.7894

ELEMENT = "Load.s848"
848      1      19.8 +j   16.2       25.6       0.7744
848      2      20.1 +j   15.8       25.6       0.7867
848      3      20.0 +j   16.0       25.6       0.7815
  TERMINAL TOTAL     60.0 +j     48.0       76.8       0.7809

ELEMENT = "Load.s830a"
830      1       6.4 +j   -0.4        6.4      -0.9984
830      2       3.6 +j    5.3        6.4       0.5585
  TERMINAL TOTAL     10.0 +j      5.0       11.1       0.8944

ELEMENT = "Load.s830b"
830      2       6.4 +j   -0.4        6.4      -0.9980
830      3       3.5 +j    5.3        6.4       0.5451
  TERMINAL TOTAL      9.9 +j      4.9       11.0       0.8944

ELEMENT = "Load.s830c"
830      3      15.2 +j   -2.2       15.3      -0.9898
830      1       9.4 +j   12.0       15.3       0.6169
  TERMINAL TOTAL     24.6 +j      9.8       26.5       0.9285

ELEMENT = "Load.s890"
890      1     137.2 +j   70.2      154.1       0.8902
890      2     139.9 +j   68.2      155.6       0.8989
890      3     137.0 +j   68.6      153.2       0.8940
  TERMINAL TOTAL    414.0 +j    207.0      462.9       0.8944

ELEMENT = "Load.d802_806sb"
802      2      15.0 +j    7.5       16.8       0.8944
802      0       0.0 +j    0.0        0.0       1.0000
  TERMINAL TOTAL     15.0 +j      7.5       16.8       0.8944

ELEMENT = "Load.d802_806rb"
806      2      15.0 +j    7.5       16.8       0.8944
806      0       0.0 +j    0.0        0.0       1.0000
  TERMINAL TOTAL     15.0 +j      7.5       16.8       0.8944

ELEMENT = "Load.d802_806sc"
802      3      12.5 +j    7.0       14.3       0.8725
802      0       0.0 +j    0.0        0.0       1.0000
  TERMINAL TOTAL     12.5 +j      7.0       14.3       0.8725

ELEMENT = "Load.d802_806rc"
806      3      12.5 +j    7.0       14.3       0.8725
806      0       0.0 +j    0.0        0.0       1.0000
  TERMINAL TOTAL     12.5 +j      7.0       14.3       0.8725

ELEMENT = "Load.d808_810sb"
808      2       8.2 +j    4.2        9.3       0.8891
808      0       0.0 +j    0.0        0.0       1.0000
  TERMINAL TOTAL      8.2 +j      4.2        9.3       0.8891

ELEMENT = "Load.d808_810rb"
810      2       8.2 +j    4.2        9.3       0.8891
810      0       0.0 +j    0.0        0.0       1.0000
  TERMINAL TOTAL      8.2 +j      4.2        9.3       0.8891

ELEMENT = "Load.d818_820sa"
818      1      17.6 +j    8.8       19.7       0.8944
818      0       0.0 +j   -0.0        0.0       1.0000
  TERMINAL TOTAL     17.6 +j      8.8       19.7       0.8944

ELEMENT = "Load.d818_820ra"
820      1      16.8 +j    8.4       18.7       0.8944
820      0       0.0 +j   -0.0        0.0       1.0000
  TERMINAL TOTAL     16.8 +j      8.4       18.7       0.8944

ELEMENT = "Load.d820_822sa"
820      1      67.5 +j   35.0       76.0       0.8878
820      0       0.0 +j   -0.0        0.0       1.0000
  TERMINAL TOTAL     67.5 +j     35.0       76.0       0.8878

ELEMENT = "Load.d820_822ra"
822      1      67.5 +j   35.0       76.0       0.8878
822      0       0.0 +j   -0.0        0.0       1.0000
  TERMINAL TOTAL     67.5 +j     35.0       76.0       0.8878

ELEMENT = "Load.d816_824sb"
816      2       1.6 +j   -0.2        1.6      -0.9891
816      3       1.0 +j    1.3        1.6       0.6121
  TERMINAL TOTAL      2.5 +j      1.0        2.7       0.9285

ELEMENT = "Load.d816_824rb"
824      2       1.6 +j   -0.2        1.6      -0.9891
824      3       1.0 +j    1.2        1.6       0.6125
  TERMINAL TOTAL      2.5 +j      1.0        2.7       0.9285

ELEMENT = "Load.d824_826sb"
824      2      20.3 +j   10.2       22.7       0.8944
824      0       0.0 +j    0.0        0.0       1.0000
  TERMINAL TOTAL     20.3 +j     10.2       22.7       0.8944

ELEMENT = "Load.d824_826rb"
826      2      20.3 +j   10.2       22.7       0.8944
826      0       0.0 +j    0.0        0.0       1.0000
  TERMINAL TOTAL     20.3 +j     10.2       22.7       0.8944

ELEMENT = "Load.d824_828sc"
824      3       2.0 +j    1.0        2.2       0.8944
824      0       0.0 +j    0.0        0.0       1.0000
  TERMINAL TOTAL      2.0 +j      1.0        2.2       0.8944

ELEMENT = "Load.d824_828rc"
828      3       2.0 +j    1.0        2.2       0.8944
828      0       0.0 +j    0.0        0.0       1.0000
  TERMINAL TOTAL      2.0 +j      1.0        2.2       0.8944

ELEMENT = "Load.d828_830sa"
828      1       3.5 +j    1.5        3.8       0.9191
828      0       0.0 +j   -0.0        0.0       1.0000
  TERMINAL TOTAL      3.5 +j      1.5        3.8       0.9191

ELEMENT = "Load.d828_830ra"
830      1       3.5 +j    1.5        3.8       0.9191
830      0       0.0 +j   -0.0        0.0       1.0000
  TERMINAL TOTAL      3.5 +j      1.5        3.8       0.9191

ELEMENT = "Load.d854_856sb"
854      2       2.0 +j    1.0        2.2       0.8944
854      0       0.0 +j    0.0        0.0       1.0000
  TERMINAL TOTAL      2.0 +j      1.0        2.2       0.8944

ELEMENT = "Load.d854_856rb"
856      2       2.0 +j    1.0        2.2       0.8944
856      0       0.0 +j    0.0        0.0       1.0000
  TERMINAL TOTAL      2.0 +j      1.0        2.2       0.8944

ELEMENT = "Load.d832_858sa"
832      1       1.3 +j    0.5        1.4       0.9191
832      0       0.0 +j   -0.0        0.0       1.0000
  TERMINAL TOTAL      1.3 +j      0.5        1.4       0.9191

ELEMENT = "Load.d832_858ra"
858      1       1.2 +j    0.5        1.4       0.9191
858      0       0.0 +j   -0.0        0.0       1.0000
  TERMINAL TOTAL      1.2 +j      0.5        1.4       0.9191

ELEMENT = "Load.d832_858sb"
832      2       0.4 +j    0.2        0.4       0.8944
832      0       0.0 +j    0.0        0.0       1.0000
  TERMINAL TOTAL      0.4 +j      0.2        0.4       0.8944

ELEMENT = "Load.d832_858rb"
858      2       0.4 +j    0.2        0.4       0.8944
858      0       0.0 +j    0.0        0.0       1.0000
  TERMINAL TOTAL      0.4 +j      0.2        0.4       0.8944

ELEMENT = "Load.d832_858sc"
832      3       1.1 +j    0.5        1.2       0.8944
832      0      -0.0 +j    0.0        0.0       1.0000
  TERMINAL TOTAL      1.1 +j      0.5        1.2       0.8944

ELEMENT = "Load.d832_858rc"
858      3       1.1 +j    0.5        1.2       0.8944
858      0      -0.0 +j    0.0        0.0       1.0000
  TERMINAL TOTAL      1.1 +j      0.5        1.2       0.8944

ELEMENT = "Load.d858_864sb"
858      1       1.0 +j    0.5        1.1       0.8944
858      0       0.0 +j   -0.0        0.0       1.0000
  TERMINAL TOTAL      1.0 +j      0.5        1.1       0.8944

ELEMENT = "Load.d858_864rb"
864      1       1.0 +j    0.5        1.1       0.8944
864      0       0.0 +j   -0.0        0.0       1.0000
  TERMINAL TOTAL      1.0 +j      0.5        1.1       0.8944

ELEMENT = "Load.d858_834sa"
858      1       1.3 +j   -0.1        1.3      -0.9987
858      2       0.7 +j    1.1        1.3       0.5586
  TERMINAL TOTAL      2.0 +j      1.0        2.2       0.8944

ELEMENT = "Load.d858_834ra"
834      1       1.3 +j   -0.1        1.3      -0.9988
834      2       0.7 +j    1.1        1.3       0.5588
  TERMINAL TOTAL      2.0 +j      1.0        2.2       0.8944

ELEMENT = "Load.d858_834sb"
858      2       4.9 +j   -0.2        4.9      -0.9993
858      3       2.6 +j    4.2        4.9       0.5253
  TERMINAL TOTAL      7.5 +j      4.0        8.5       0.8824

ELEMENT = "Load.d858_834rb"
834      2       4.9 +j   -0.2        4.9      -0.9993
834      3       2.6 +j    4.2        4.9       0.5255
  TERMINAL TOTAL      7.5 +j      4.0        8.5       0.8824

ELEMENT = "Load.d858_834sc"
858      3       4.3 +j   -0.1        4.3      -0.9994
858      1       2.2 +j    3.6        4.3       0.5213
  TERMINAL TOTAL      6.5 +j      3.5        7.4       0.8805

ELEMENT = "Load.d858_834rc"
834      3       4.3 +j   -0.2        4.3      -0.9994
834      1       2.2 +j    3.7        4.3       0.5208
  TERMINAL TOTAL      6.5 +j      3.5        7.4       0.8805

ELEMENT = "Load.d834_860sa"
834      1       5.5 +j   -0.3        5.5      -0.9988
834      2       3.1 +j    4.6        5.5       0.5588
  TERMINAL TOTAL      8.6 +j      4.3        9.6       0.8944

ELEMENT = "Load.d834_860ra"
860      1       5.5 +j   -0.3        5.5      -0.9988
860      2       3.1 +j    4.6        5.5       0.5589
  TERMINAL TOTAL      8.6 +j      4.3        9.6       0.8944

ELEMENT = "Load.d834_860sb"
834      2       6.8 +j   -0.4        6.8      -0.9979
834      3       3.8 +j    5.7        6.8       0.5477
  TERMINAL TOTAL     10.6 +j      5.3       11.8       0.8944

ELEMENT = "Load.d834_860rb"
860      2       6.8 +j   -0.4        6.8      -0.9979
860      3       3.7 +j    5.7        6.8       0.5477
  TERMINAL TOTAL     10.6 +j      5.3       11.8       0.8944

ELEMENT = "Load.d834_860sc"
834      3      37.6 +j   -2.5       37.7      -0.9978
834      1      20.6 +j   31.6       37.7       0.5464
  TERMINAL TOTAL     58.2 +j     29.1       65.0       0.8944

ELEMENT = "Load.d834_860rc"
860      3      37.6 +j   -2.5       37.6      -0.9978
860      1      20.6 +j   31.5       37.7       0.5464
  TERMINAL TOTAL     58.1 +j     29.1       65.0       0.8944

ELEMENT = "Load.d860_836sa"
860      1       9.6 +j   -0.5        9.6      -0.9988
860      2       5.4 +j    8.0        9.6       0.5589
  TERMINAL TOTAL     15.0 +j      7.5       16.8       0.8944

ELEMENT = "Load.d860_836ra"
836      1       9.6 +j   -0.5        9.6      -0.9988
836      2       5.4 +j    8.0        9.6       0.5589
  TERMINAL TOTAL     15.0 +j      7.5       16.8       0.8944

ELEMENT = "Load.d860_836sb"
860      2       3.4 +j    0.0        3.4       0.9999
860      3       1.6 +j    3.0        3.4       0.4819
  TERMINAL TOTAL      5.0 +j      3.0        5.8       0.8575

ELEMENT = "Load.d860_836rb"
836      2       3.4 +j    0.0        3.4       0.9999
836      3       1.6 +j    3.0        3.4       0.4819
  TERMINAL TOTAL      5.0 +j      3.0        5.8       0.8575

ELEMENT = "Load.d860_836sc"
860      3      13.7 +j   -0.6       13.7      -0.9989
860      1       7.3 +j   11.6       13.7       0.5305
  TERMINAL TOTAL     21.0 +j     11.0       23.7       0.8858

ELEMENT = "Load.d860_836rc"
836      3      13.7 +j   -0.6       13.7      -0.9989
836      1       7.3 +j   11.6       13.7       0.5304
  TERMINAL TOTAL     21.0 +j     11.0       23.7       0.8858

ELEMENT = "Load.d836_840sa"
836      1       6.0 +j   -0.3        6.0      -0.9988
836      2       3.3 +j    5.0        6.0       0.5589
  TERMINAL TOTAL      9.3 +j      4.7       10.4       0.8944

ELEMENT = "Load.d836_840ra"
840      1       6.0 +j   -0.3        6.0      -0.9988
840      2       3.3 +j    5.0        6.0       0.5589
  TERMINAL TOTAL      9.3 +j      4.7       10.4       0.8944

ELEMENT = "Load.d836_840sb"
836      2       7.3 +j   -0.5        7.3      -0.9979
836      3       4.0 +j    6.1        7.3       0.5477
  TERMINAL TOTAL     11.3 +j      5.7       12.6       0.8944

ELEMENT = "Load.d836_840rb"
840      2       7.3 +j   -0.5        7.3      -0.9979
840      3       4.0 +j    6.1        7.3       0.5477
  TERMINAL TOTAL     11.3 +j      5.7       12.6       0.8944

ELEMENT = "Load.d862_838sb"
862      2      14.0 +j    7.0       15.7       0.8944
862      0       0.0 +j    0.0        0.0       1.0000
  TERMINAL TOTAL     14.0 +j      7.0       15.7       0.8944

ELEMENT = "Load.d862_838rb"
838      2      14.0 +j    7.0       15.7       0.8944
838      0       0.0 +j    0.0        0.0       1.0000
  TERMINAL TOTAL     14.0 +j      7.0       15.7       0.8944

ELEMENT = "Load.d842_844sa"
842      1       4.5 +j    2.5        5.1       0.8742
842      0       0.0 +j   -0.0        0.0       1.0000
  TERMINAL TOTAL      4.5 +j      2.5        5.1       0.8742

ELEMENT = "Load.d842_844ra"
844      1       4.5 +j    2.5        5.1       0.8742
844      0       0.0 +j   -0.0        0.0       1.0000
  TERMINAL TOTAL      4.5 +j      2.5        5.1       0.8742

ELEMENT = "Load.d844_846sb"
844      2      12.5 +j    6.0       13.9       0.9015
844      0       0.0 +j    0.0        0.0       1.0000
  TERMINAL TOTAL     12.5 +j      6.0       13.9       0.9015

ELEMENT = "Load.d844_846rb"
846      2      12.5 +j    6.0       13.9       0.9015
846      0       0.0 +j    0.0        0.0       1.0000
  TERMINAL TOTAL     12.5 +j      6.0       13.9       0.9015

ELEMENT = "Load.d844_846sc"
844      3      10.0 +j    5.5       11.4       0.8762
844      0      -0.0 +j    0.0        0.0       1.0000
  TERMINAL TOTAL     10.0 +j      5.5       11.4       0.8762

ELEMENT = "Load.d844_846rc"
846      3      10.0 +j    5.5       11.4       0.8762
846      0      -0.0 +j    0.0        0.0       1.0000
  TERMINAL TOTAL     10.0 +j      5.5       11.4       0.8762

ELEMENT = "Load.d846_848sb"
846      2      11.5 +j    5.5       12.7       0.9021
846      0       0.0 +j    0.0        0.0       1.0000
  TERMINAL TOTAL     11.5 +j      5.5       12.7       0.9021

ELEMENT = "Load.d846_848rb"
848      2      11.5 +j    5.5       12.7       0.9021
848      0       0.0 +j    0.0        0.0       1.0000
  TERMINAL TOTAL     11.5 +j      5.5       12.7       0.9021


Total Circuit Losses =  270.1 +j   34.3
